/*--------------------------------*- C++ -*----------------------------------*\
  =========                 |
  \\      /  F ield         | OpenFOAM: The Open Source CFD Toolbox
   \\    /   O peration     | Website:  https://openfoam.org
    \\  /    A nd           | Version:  dev
     \\/     M anipulation  |
\*---------------------------------------------------------------------------*/
FoamFile
{
    format      ascii;
    class       extendedFeatureEdgeMesh;
    location    "constant/extendedFeatureEdgeMesh";
    object      naca0012.extendedFeatureEdgeMesh;
}
// * * * * * * * * * * * * * * * * * * * * * * * * * * * * * * * * * * * * * //

// points

798
(
(1 0.00126 -1)
(1 0.00126 1)
(1 -0.00126 -1)
(1 -0.00126 1)
(0.999938 0.00126874 -1)
(0.999938 0.00126874 1)
(0.999751 0.00129496 -1)
(0.999751 0.00129496 1)
(0.999439 0.00133864 -1)
(0.999439 0.00133864 1)
(0.999003 0.00139974 -1)
(0.999003 0.00139974 1)
(0.998443 0.00147823 -1)
(0.998443 0.00147823 1)
(0.997759 0.00157405 -1)
(0.997759 0.00157405 1)
(0.99695 0.00168713 -1)
(0.99695 0.00168713 1)
(0.996018 0.00181738 -1)
(0.996018 0.00181738 1)
(0.994962 0.00196473 -1)
(0.994962 0.00196473 1)
(0.993782 0.00212907 -1)
(0.993782 0.00212907 1)
(0.99248 0.00231027 -1)
(0.99248 0.00231027 1)
(0.991055 0.00250821 -1)
(0.991055 0.00250821 1)
(0.989507 0.00272276 -1)
(0.989507 0.00272276 1)
(0.987837 0.00295377 -1)
(0.987837 0.00295377 1)
(0.986046 0.00320107 -1)
(0.986046 0.00320107 1)
(0.984134 0.00346451 -1)
(0.984134 0.00346451 1)
(0.982101 0.00374389 -1)
(0.982101 0.00374389 1)
(0.979948 0.00403903 -1)
(0.979948 0.00403903 1)
(0.977675 0.00434972 -1)
(0.977675 0.00434972 1)
(0.975284 0.00467577 -1)
(0.975284 0.00467577 1)
(0.972774 0.00501694 -1)
(0.972774 0.00501694 1)
(0.970146 0.00537303 -1)
(0.970146 0.00537303 1)
(0.9674 0.00574378 -1)
(0.9674 0.00574378 1)
(0.964539 0.00612896 -1)
(0.964539 0.00612896 1)
(0.961561 0.00652832 -1)
(0.961561 0.00652832 1)
(0.958469 0.0069416 -1)
(0.958469 0.0069416 1)
(0.955262 0.00736854 -1)
(0.955262 0.00736854 1)
(0.951942 0.00780886 -1)
(0.951942 0.00780886 1)
(0.948509 0.0082623 -1)
(0.948509 0.0082623 1)
(0.944965 0.00872855 -1)
(0.944965 0.00872855 1)
(0.941309 0.00920734 -1)
(0.941309 0.00920734 1)
(0.937544 0.00969838 -1)
(0.937544 0.00969838 1)
(0.933669 0.0102014 -1)
(0.933669 0.0102014 1)
(0.929686 0.010716 -1)
(0.929686 0.010716 1)
(0.925597 0.0112419 -1)
(0.925597 0.0112419 1)
(0.921401 0.0117789 -1)
(0.921401 0.0117789 1)
(0.9171 0.0123266 -1)
(0.9171 0.0123266 1)
(0.912695 0.0128847 -1)
(0.912695 0.0128847 1)
(0.908188 0.0134528 -1)
(0.908188 0.0134528 1)
(0.903579 0.0140307 -1)
(0.903579 0.0140307 1)
(0.898869 0.0146179 -1)
(0.898869 0.0146179 1)
(0.894059 0.0152143 -1)
(0.894059 0.0152143 1)
(0.889152 0.0158194 -1)
(0.889152 0.0158194 1)
(0.884147 0.016433 -1)
(0.884147 0.016433 1)
(0.879047 0.0170546 -1)
(0.879047 0.0170546 1)
(0.873852 0.017684 -1)
(0.873852 0.017684 1)
(0.868565 0.0183208 -1)
(0.868565 0.0183208 1)
(0.863185 0.0189646 -1)
(0.863185 0.0189646 1)
(0.857715 0.0196151 -1)
(0.857715 0.0196151 1)
(0.852155 0.0202721 -1)
(0.852155 0.0202721 1)
(0.846508 0.0209351 -1)
(0.846508 0.0209351 1)
(0.840775 0.0216037 -1)
(0.840775 0.0216037 1)
(0.834956 0.0222777 -1)
(0.834956 0.0222777 1)
(0.829054 0.0229567 -1)
(0.829054 0.0229567 1)
(0.82307 0.0236404 -1)
(0.82307 0.0236404 1)
(0.817006 0.0243283 -1)
(0.817006 0.0243283 1)
(0.810862 0.0250202 -1)
(0.810862 0.0250202 1)
(0.804642 0.0257156 -1)
(0.804642 0.0257156 1)
(0.798345 0.0264143 -1)
(0.798345 0.0264143 1)
(0.791974 0.0271159 -1)
(0.791974 0.0271159 1)
(0.78553 0.02782 -1)
(0.78553 0.02782 1)
(0.779015 0.0285263 -1)
(0.779015 0.0285263 1)
(0.77243 0.0292344 -1)
(0.77243 0.0292344 1)
(0.765777 0.0299439 -1)
(0.765777 0.0299439 1)
(0.759058 0.0306545 -1)
(0.759058 0.0306545 1)
(0.752275 0.0313659 -1)
(0.752275 0.0313659 1)
(0.745429 0.0320775 -1)
(0.745429 0.0320775 1)
(0.738522 0.0327892 -1)
(0.738522 0.0327892 1)
(0.731555 0.0335005 -1)
(0.731555 0.0335005 1)
(0.72453 0.034211 -1)
(0.72453 0.034211 1)
(0.71745 0.0349203 -1)
(0.71745 0.0349203 1)
(0.710315 0.0356282 -1)
(0.710315 0.0356282 1)
(0.703128 0.0363341 -1)
(0.703128 0.0363341 1)
(0.69589 0.0370377 -1)
(0.69589 0.0370377 1)
(0.688604 0.0377387 -1)
(0.688604 0.0377387 1)
(0.68127 0.0384366 -1)
(0.68127 0.0384366 1)
(0.673891 0.039131 -1)
(0.673891 0.039131 1)
(0.666469 0.0398216 -1)
(0.666469 0.0398216 1)
(0.659006 0.0405078 -1)
(0.659006 0.0405078 1)
(0.651503 0.0411895 -1)
(0.651503 0.0411895 1)
(0.643962 0.041866 -1)
(0.643962 0.041866 1)
(0.636385 0.0425371 -1)
(0.636385 0.0425371 1)
(0.628774 0.0432022 -1)
(0.628774 0.0432022 1)
(0.621131 0.043861 -1)
(0.621131 0.043861 1)
(0.613458 0.0445131 -1)
(0.613458 0.0445131 1)
(0.605757 0.045158 -1)
(0.605757 0.045158 1)
(0.598029 0.0457953 -1)
(0.598029 0.0457953 1)
(0.590277 0.0464245 -1)
(0.590277 0.0464245 1)
(0.582502 0.0470453 -1)
(0.582502 0.0470453 1)
(0.574707 0.0476572 -1)
(0.574707 0.0476572 1)
(0.566893 0.0482597 -1)
(0.566893 0.0482597 1)
(0.559063 0.0488524 -1)
(0.559063 0.0488524 1)
(0.551217 0.0494349 -1)
(0.551217 0.0494349 1)
(0.543359 0.0500067 -1)
(0.543359 0.0500067 1)
(0.535491 0.0505674 -1)
(0.535491 0.0505674 1)
(0.527613 0.0511164 -1)
(0.527613 0.0511164 1)
(0.519728 0.0516534 -1)
(0.519728 0.0516534 1)
(0.511839 0.0521779 -1)
(0.511839 0.0521779 1)
(0.503947 0.0526895 -1)
(0.503947 0.0526895 1)
(0.496053 0.0531876 -1)
(0.496053 0.0531876 1)
(0.488161 0.0536719 -1)
(0.488161 0.0536719 1)
(0.480271 0.0541419 -1)
(0.480271 0.0541419 1)
(0.472387 0.0545971 -1)
(0.472387 0.0545971 1)
(0.464509 0.0550371 -1)
(0.464509 0.0550371 1)
(0.456641 0.0554614 -1)
(0.456641 0.0554614 1)
(0.448783 0.0558696 -1)
(0.448783 0.0558696 1)
(0.440937 0.0562612 -1)
(0.440937 0.0562612 1)
(0.433107 0.0566359 -1)
(0.433107 0.0566359 1)
(0.425293 0.0569931 -1)
(0.425293 0.0569931 1)
(0.417498 0.0573325 -1)
(0.417498 0.0573325 1)
(0.409723 0.0576537 -1)
(0.409723 0.0576537 1)
(0.401971 0.0579561 -1)
(0.401971 0.0579561 1)
(0.394243 0.0582394 -1)
(0.394243 0.0582394 1)
(0.386542 0.0585033 -1)
(0.386542 0.0585033 1)
(0.378869 0.0587472 -1)
(0.378869 0.0587472 1)
(0.371226 0.0589709 -1)
(0.371226 0.0589709 1)
(0.363615 0.0591739 -1)
(0.363615 0.0591739 1)
(0.356038 0.0593559 -1)
(0.356038 0.0593559 1)
(0.348497 0.0595165 -1)
(0.348497 0.0595165 1)
(0.340994 0.0596554 -1)
(0.340994 0.0596554 1)
(0.333531 0.0597723 -1)
(0.333531 0.0597723 1)
(0.326109 0.0598668 -1)
(0.326109 0.0598668 1)
(0.31873 0.0599386 -1)
(0.31873 0.0599386 1)
(0.311396 0.0599875 -1)
(0.311396 0.0599875 1)
(0.30411 0.0600131 -1)
(0.30411 0.0600131 1)
(0.296872 0.0600153 -1)
(0.296872 0.0600153 1)
(0.289685 0.0599937 -1)
(0.289685 0.0599937 1)
(0.28255 0.0599481 -1)
(0.28255 0.0599481 1)
(0.27547 0.0598783 -1)
(0.27547 0.0598783 1)
(0.268445 0.0597841 -1)
(0.268445 0.0597841 1)
(0.261478 0.0596654 -1)
(0.261478 0.0596654 1)
(0.254571 0.0595219 -1)
(0.254571 0.0595219 1)
(0.247725 0.0593535 -1)
(0.247725 0.0593535 1)
(0.240941 0.0591602 -1)
(0.240941 0.0591602 1)
(0.234223 0.0589417 -1)
(0.234223 0.0589417 1)
(0.22757 0.058698 -1)
(0.22757 0.058698 1)
(0.220986 0.058429 -1)
(0.220986 0.058429 1)
(0.21447 0.0581347 -1)
(0.21447 0.0581347 1)
(0.208026 0.057815 -1)
(0.208026 0.057815 1)
(0.201655 0.0574699 -1)
(0.201655 0.0574699 1)
(0.195358 0.0570995 -1)
(0.195358 0.0570995 1)
(0.189138 0.0567037 -1)
(0.189138 0.0567037 1)
(0.182994 0.0562827 -1)
(0.182994 0.0562827 1)
(0.17693 0.0558363 -1)
(0.17693 0.0558363 1)
(0.170946 0.0553649 -1)
(0.170946 0.0553649 1)
(0.165044 0.0548684 -1)
(0.165044 0.0548684 1)
(0.159225 0.0543469 -1)
(0.159225 0.0543469 1)
(0.153492 0.0538007 -1)
(0.153492 0.0538007 1)
(0.147845 0.0532298 -1)
(0.147845 0.0532298 1)
(0.142285 0.0526344 -1)
(0.142285 0.0526344 1)
(0.136815 0.0520148 -1)
(0.136815 0.0520148 1)
(0.131435 0.0513711 -1)
(0.131435 0.0513711 1)
(0.126147 0.0507036 -1)
(0.126147 0.0507036 1)
(0.120953 0.0500125 -1)
(0.120953 0.0500125 1)
(0.115853 0.0492981 -1)
(0.115853 0.0492981 1)
(0.110848 0.0485606 -1)
(0.110848 0.0485606 1)
(0.105941 0.0478003 -1)
(0.105941 0.0478003 1)
(0.101131 0.0470175 -1)
(0.101131 0.0470175 1)
(0.0964215 0.0462126 -1)
(0.0964215 0.0462126 1)
(0.0918121 0.0453857 -1)
(0.0918121 0.0453857 1)
(0.0873046 0.0445374 -1)
(0.0873046 0.0445374 1)
(0.0828998 0.0436679 -1)
(0.0828998 0.0436679 1)
(0.0785991 0.0427776 -1)
(0.0785991 0.0427776 1)
(0.0744033 0.0418669 -1)
(0.0744033 0.0418669 1)
(0.0703136 0.040936 -1)
(0.0703136 0.040936 1)
(0.066331 0.0399854 -1)
(0.066331 0.0399854 1)
(0.0624565 0.0390155 -1)
(0.0624565 0.0390155 1)
(0.058691 0.0380266 -1)
(0.058691 0.0380266 1)
(0.0550355 0.0370192 -1)
(0.0550355 0.0370192 1)
(0.0514909 0.0359937 -1)
(0.0514909 0.0359937 1)
(0.0480581 0.0349503 -1)
(0.0480581 0.0349503 1)
(0.0447379 0.0338896 -1)
(0.0447379 0.0338896 1)
(0.0415312 0.0328119 -1)
(0.0415312 0.0328119 1)
(0.0384387 0.0317177 -1)
(0.0384387 0.0317177 1)
(0.0354613 0.0306072 -1)
(0.0354613 0.0306072 1)
(0.0325996 0.0294809 -1)
(0.0325996 0.0294809 1)
(0.0298544 0.0283393 -1)
(0.0298544 0.0283393 1)
(0.0272264 0.0271826 -1)
(0.0272264 0.0271826 1)
(0.0247163 0.0260112 -1)
(0.0247163 0.0260112 1)
(0.0223245 0.0248256 -1)
(0.0223245 0.0248256 1)
(0.0200518 0.023626 -1)
(0.0200518 0.023626 1)
(0.0178988 0.0224129 -1)
(0.0178988 0.0224129 1)
(0.0158658 0.0211866 -1)
(0.0158658 0.0211866 1)
(0.0139536 0.0199473 -1)
(0.0139536 0.0199473 1)
(0.0121624 0.0186955 -1)
(0.0121624 0.0186955 1)
(0.0104929 0.0174314 -1)
(0.0104929 0.0174314 1)
(0.00894534 0.0161554 -1)
(0.00894534 0.0161554 1)
(0.00752016 0.0148677 -1)
(0.00752016 0.0148677 1)
(0.00621772 0.0135686 -1)
(0.00621772 0.0135686 1)
(0.00503835 0.0122584 -1)
(0.00503835 0.0122584 1)
(0.00398232 0.0109372 -1)
(0.00398232 0.0109372 1)
(0.00304991 0.00960543 -1)
(0.00304991 0.00960543 1)
(0.00224136 0.00826318 -1)
(0.00224136 0.00826318 1)
(0.00155686 0.00691066 -1)
(0.00155686 0.00691066 1)
(0.000996573 0.00554807 -1)
(0.000996573 0.00554807 1)
(0.000560654 0.00417557 -1)
(0.000560654 0.00417557 1)
(0.000249205 0.00279331 -1)
(0.000249205 0.00279331 1)
(6.23052e-05 0.00140141 -1)
(6.23052e-05 0.00140141 1)
(0 0 -1)
(0 0 1)
(6.23052e-05 -0.00140141 -1)
(6.23052e-05 -0.00140141 1)
(0.000249205 -0.00279331 -1)
(0.000249205 -0.00279331 1)
(0.000560654 -0.00417557 -1)
(0.000560654 -0.00417557 1)
(0.000996573 -0.00554807 -1)
(0.000996573 -0.00554807 1)
(0.00155686 -0.00691066 -1)
(0.00155686 -0.00691066 1)
(0.00224136 -0.00826318 -1)
(0.00224136 -0.00826318 1)
(0.00304991 -0.00960543 -1)
(0.00304991 -0.00960543 1)
(0.00398232 -0.0109372 -1)
(0.00398232 -0.0109372 1)
(0.00503835 -0.0122584 -1)
(0.00503835 -0.0122584 1)
(0.00621772 -0.0135686 -1)
(0.00621772 -0.0135686 1)
(0.00752016 -0.0148677 -1)
(0.00752016 -0.0148677 1)
(0.00894534 -0.0161554 -1)
(0.00894534 -0.0161554 1)
(0.0104929 -0.0174314 -1)
(0.0104929 -0.0174314 1)
(0.0121624 -0.0186955 -1)
(0.0121624 -0.0186955 1)
(0.0139536 -0.0199473 -1)
(0.0139536 -0.0199473 1)
(0.0158658 -0.0211866 -1)
(0.0158658 -0.0211866 1)
(0.0178988 -0.0224129 -1)
(0.0178988 -0.0224129 1)
(0.0200518 -0.023626 -1)
(0.0200518 -0.023626 1)
(0.0223245 -0.0248256 -1)
(0.0223245 -0.0248256 1)
(0.0247163 -0.0260112 -1)
(0.0247163 -0.0260112 1)
(0.0272264 -0.0271826 -1)
(0.0272264 -0.0271826 1)
(0.0298544 -0.0283393 -1)
(0.0298544 -0.0283393 1)
(0.0325996 -0.0294809 -1)
(0.0325996 -0.0294809 1)
(0.0354613 -0.0306072 -1)
(0.0354613 -0.0306072 1)
(0.0384387 -0.0317177 -1)
(0.0384387 -0.0317177 1)
(0.0415312 -0.0328119 -1)
(0.0415312 -0.0328119 1)
(0.0447379 -0.0338896 -1)
(0.0447379 -0.0338896 1)
(0.0480581 -0.0349503 -1)
(0.0480581 -0.0349503 1)
(0.0514909 -0.0359937 -1)
(0.0514909 -0.0359937 1)
(0.0550355 -0.0370192 -1)
(0.0550355 -0.0370192 1)
(0.058691 -0.0380266 -1)
(0.058691 -0.0380266 1)
(0.0624565 -0.0390155 -1)
(0.0624565 -0.0390155 1)
(0.066331 -0.0399854 -1)
(0.066331 -0.0399854 1)
(0.0703136 -0.040936 -1)
(0.0703136 -0.040936 1)
(0.0744033 -0.0418669 -1)
(0.0744033 -0.0418669 1)
(0.0785991 -0.0427776 -1)
(0.0785991 -0.0427776 1)
(0.0828998 -0.0436679 -1)
(0.0828998 -0.0436679 1)
(0.0873046 -0.0445374 -1)
(0.0873046 -0.0445374 1)
(0.0918121 -0.0453857 -1)
(0.0918121 -0.0453857 1)
(0.0964215 -0.0462126 -1)
(0.0964215 -0.0462126 1)
(0.101131 -0.0470175 -1)
(0.101131 -0.0470175 1)
(0.105941 -0.0478003 -1)
(0.105941 -0.0478003 1)
(0.110848 -0.0485606 -1)
(0.110848 -0.0485606 1)
(0.115853 -0.0492981 -1)
(0.115853 -0.0492981 1)
(0.120953 -0.0500125 -1)
(0.120953 -0.0500125 1)
(0.126147 -0.0507036 -1)
(0.126147 -0.0507036 1)
(0.131435 -0.0513711 -1)
(0.131435 -0.0513711 1)
(0.136815 -0.0520148 -1)
(0.136815 -0.0520148 1)
(0.142285 -0.0526344 -1)
(0.142285 -0.0526344 1)
(0.147845 -0.0532298 -1)
(0.147845 -0.0532298 1)
(0.153492 -0.0538007 -1)
(0.153492 -0.0538007 1)
(0.159225 -0.0543469 -1)
(0.159225 -0.0543469 1)
(0.165044 -0.0548684 -1)
(0.165044 -0.0548684 1)
(0.170946 -0.0553649 -1)
(0.170946 -0.0553649 1)
(0.17693 -0.0558363 -1)
(0.17693 -0.0558363 1)
(0.182994 -0.0562827 -1)
(0.182994 -0.0562827 1)
(0.189138 -0.0567037 -1)
(0.189138 -0.0567037 1)
(0.195358 -0.0570995 -1)
(0.195358 -0.0570995 1)
(0.201655 -0.0574699 -1)
(0.201655 -0.0574699 1)
(0.208026 -0.057815 -1)
(0.208026 -0.057815 1)
(0.21447 -0.0581347 -1)
(0.21447 -0.0581347 1)
(0.220986 -0.058429 -1)
(0.220986 -0.058429 1)
(0.22757 -0.058698 -1)
(0.22757 -0.058698 1)
(0.234223 -0.0589417 -1)
(0.234223 -0.0589417 1)
(0.240941 -0.0591602 -1)
(0.240941 -0.0591602 1)
(0.247725 -0.0593535 -1)
(0.247725 -0.0593535 1)
(0.254571 -0.0595219 -1)
(0.254571 -0.0595219 1)
(0.261478 -0.0596654 -1)
(0.261478 -0.0596654 1)
(0.268445 -0.0597841 -1)
(0.268445 -0.0597841 1)
(0.27547 -0.0598783 -1)
(0.27547 -0.0598783 1)
(0.28255 -0.0599481 -1)
(0.28255 -0.0599481 1)
(0.289685 -0.0599937 -1)
(0.289685 -0.0599937 1)
(0.296872 -0.0600153 -1)
(0.296872 -0.0600153 1)
(0.30411 -0.0600131 -1)
(0.30411 -0.0600131 1)
(0.311396 -0.0599875 -1)
(0.311396 -0.0599875 1)
(0.31873 -0.0599386 -1)
(0.31873 -0.0599386 1)
(0.326109 -0.0598668 -1)
(0.326109 -0.0598668 1)
(0.333531 -0.0597723 -1)
(0.333531 -0.0597723 1)
(0.340994 -0.0596554 -1)
(0.340994 -0.0596554 1)
(0.348497 -0.0595165 -1)
(0.348497 -0.0595165 1)
(0.356038 -0.0593559 -1)
(0.356038 -0.0593559 1)
(0.363615 -0.0591739 -1)
(0.363615 -0.0591739 1)
(0.371226 -0.0589709 -1)
(0.371226 -0.0589709 1)
(0.378869 -0.0587472 -1)
(0.378869 -0.0587472 1)
(0.386542 -0.0585033 -1)
(0.386542 -0.0585033 1)
(0.394243 -0.0582394 -1)
(0.394243 -0.0582394 1)
(0.401971 -0.0579561 -1)
(0.401971 -0.0579561 1)
(0.409723 -0.0576537 -1)
(0.409723 -0.0576537 1)
(0.417498 -0.0573325 -1)
(0.417498 -0.0573325 1)
(0.425293 -0.0569931 -1)
(0.425293 -0.0569931 1)
(0.433107 -0.0566359 -1)
(0.433107 -0.0566359 1)
(0.440937 -0.0562612 -1)
(0.440937 -0.0562612 1)
(0.448783 -0.0558696 -1)
(0.448783 -0.0558696 1)
(0.456641 -0.0554614 -1)
(0.456641 -0.0554614 1)
(0.464509 -0.0550371 -1)
(0.464509 -0.0550371 1)
(0.472387 -0.0545971 -1)
(0.472387 -0.0545971 1)
(0.480271 -0.0541419 -1)
(0.480271 -0.0541419 1)
(0.488161 -0.0536719 -1)
(0.488161 -0.0536719 1)
(0.496053 -0.0531876 -1)
(0.496053 -0.0531876 1)
(0.503947 -0.0526895 -1)
(0.503947 -0.0526895 1)
(0.511839 -0.0521779 -1)
(0.511839 -0.0521779 1)
(0.519728 -0.0516534 -1)
(0.519728 -0.0516534 1)
(0.527613 -0.0511164 -1)
(0.527613 -0.0511164 1)
(0.535491 -0.0505674 -1)
(0.535491 -0.0505674 1)
(0.543359 -0.0500067 -1)
(0.543359 -0.0500067 1)
(0.551217 -0.0494349 -1)
(0.551217 -0.0494349 1)
(0.559063 -0.0488524 -1)
(0.559063 -0.0488524 1)
(0.566893 -0.0482597 -1)
(0.566893 -0.0482597 1)
(0.574707 -0.0476572 -1)
(0.574707 -0.0476572 1)
(0.582502 -0.0470453 -1)
(0.582502 -0.0470453 1)
(0.590277 -0.0464245 -1)
(0.590277 -0.0464245 1)
(0.598029 -0.0457953 -1)
(0.598029 -0.0457953 1)
(0.605757 -0.045158 -1)
(0.605757 -0.045158 1)
(0.613458 -0.0445131 -1)
(0.613458 -0.0445131 1)
(0.621131 -0.043861 -1)
(0.621131 -0.043861 1)
(0.628774 -0.0432022 -1)
(0.628774 -0.0432022 1)
(0.636385 -0.0425371 -1)
(0.636385 -0.0425371 1)
(0.643962 -0.041866 -1)
(0.643962 -0.041866 1)
(0.651503 -0.0411895 -1)
(0.651503 -0.0411895 1)
(0.659006 -0.0405078 -1)
(0.659006 -0.0405078 1)
(0.666469 -0.0398216 -1)
(0.666469 -0.0398216 1)
(0.673891 -0.039131 -1)
(0.673891 -0.039131 1)
(0.68127 -0.0384366 -1)
(0.68127 -0.0384366 1)
(0.688604 -0.0377387 -1)
(0.688604 -0.0377387 1)
(0.69589 -0.0370377 -1)
(0.69589 -0.0370377 1)
(0.703128 -0.0363341 -1)
(0.703128 -0.0363341 1)
(0.710315 -0.0356282 -1)
(0.710315 -0.0356282 1)
(0.71745 -0.0349203 -1)
(0.71745 -0.0349203 1)
(0.72453 -0.034211 -1)
(0.72453 -0.034211 1)
(0.731555 -0.0335005 -1)
(0.731555 -0.0335005 1)
(0.738522 -0.0327892 -1)
(0.738522 -0.0327892 1)
(0.745429 -0.0320775 -1)
(0.745429 -0.0320775 1)
(0.752275 -0.0313659 -1)
(0.752275 -0.0313659 1)
(0.759058 -0.0306545 -1)
(0.759058 -0.0306545 1)
(0.765777 -0.0299439 -1)
(0.765777 -0.0299439 1)
(0.77243 -0.0292344 -1)
(0.77243 -0.0292344 1)
(0.779015 -0.0285263 -1)
(0.779015 -0.0285263 1)
(0.78553 -0.02782 -1)
(0.78553 -0.02782 1)
(0.791974 -0.0271159 -1)
(0.791974 -0.0271159 1)
(0.798345 -0.0264143 -1)
(0.798345 -0.0264143 1)
(0.804642 -0.0257156 -1)
(0.804642 -0.0257156 1)
(0.810862 -0.0250202 -1)
(0.810862 -0.0250202 1)
(0.817006 -0.0243283 -1)
(0.817006 -0.0243283 1)
(0.82307 -0.0236404 -1)
(0.82307 -0.0236404 1)
(0.829054 -0.0229567 -1)
(0.829054 -0.0229567 1)
(0.834956 -0.0222777 -1)
(0.834956 -0.0222777 1)
(0.840775 -0.0216037 -1)
(0.840775 -0.0216037 1)
(0.846508 -0.0209351 -1)
(0.846508 -0.0209351 1)
(0.852155 -0.0202721 -1)
(0.852155 -0.0202721 1)
(0.857715 -0.0196151 -1)
(0.857715 -0.0196151 1)
(0.863185 -0.0189646 -1)
(0.863185 -0.0189646 1)
(0.868565 -0.0183208 -1)
(0.868565 -0.0183208 1)
(0.873852 -0.017684 -1)
(0.873852 -0.017684 1)
(0.879047 -0.0170546 -1)
(0.879047 -0.0170546 1)
(0.884147 -0.016433 -1)
(0.884147 -0.016433 1)
(0.889152 -0.0158194 -1)
(0.889152 -0.0158194 1)
(0.894059 -0.0152143 -1)
(0.894059 -0.0152143 1)
(0.898869 -0.0146179 -1)
(0.898869 -0.0146179 1)
(0.903579 -0.0140307 -1)
(0.903579 -0.0140307 1)
(0.908188 -0.0134528 -1)
(0.908188 -0.0134528 1)
(0.912695 -0.0128847 -1)
(0.912695 -0.0128847 1)
(0.9171 -0.0123266 -1)
(0.9171 -0.0123266 1)
(0.921401 -0.0117789 -1)
(0.921401 -0.0117789 1)
(0.925597 -0.0112419 -1)
(0.925597 -0.0112419 1)
(0.929686 -0.010716 -1)
(0.929686 -0.010716 1)
(0.933669 -0.0102014 -1)
(0.933669 -0.0102014 1)
(0.937544 -0.00969838 -1)
(0.937544 -0.00969838 1)
(0.941309 -0.00920734 -1)
(0.941309 -0.00920734 1)
(0.944965 -0.00872855 -1)
(0.944965 -0.00872855 1)
(0.948509 -0.0082623 -1)
(0.948509 -0.0082623 1)
(0.951942 -0.00780886 -1)
(0.951942 -0.00780886 1)
(0.955262 -0.00736854 -1)
(0.955262 -0.00736854 1)
(0.958469 -0.0069416 -1)
(0.958469 -0.0069416 1)
(0.961561 -0.00652832 -1)
(0.961561 -0.00652832 1)
(0.964539 -0.00612896 -1)
(0.964539 -0.00612896 1)
(0.9674 -0.00574378 -1)
(0.9674 -0.00574378 1)
(0.970146 -0.00537303 -1)
(0.970146 -0.00537303 1)
(0.972774 -0.00501694 -1)
(0.972774 -0.00501694 1)
(0.975284 -0.00467577 -1)
(0.975284 -0.00467577 1)
(0.977675 -0.00434972 -1)
(0.977675 -0.00434972 1)
(0.979948 -0.00403903 -1)
(0.979948 -0.00403903 1)
(0.982101 -0.00374389 -1)
(0.982101 -0.00374389 1)
(0.984134 -0.00346451 -1)
(0.984134 -0.00346451 1)
(0.986046 -0.00320107 -1)
(0.986046 -0.00320107 1)
(0.987837 -0.00295377 -1)
(0.987837 -0.00295377 1)
(0.989507 -0.00272276 -1)
(0.989507 -0.00272276 1)
(0.991055 -0.00250821 -1)
(0.991055 -0.00250821 1)
(0.99248 -0.00231027 -1)
(0.99248 -0.00231027 1)
(0.993782 -0.00212907 -1)
(0.993782 -0.00212907 1)
(0.994962 -0.00196473 -1)
(0.994962 -0.00196473 1)
(0.996018 -0.00181738 -1)
(0.996018 -0.00181738 1)
(0.99695 -0.00168713 -1)
(0.99695 -0.00168713 1)
(0.997759 -0.00157405 -1)
(0.997759 -0.00157405 1)
(0.998443 -0.00147823 -1)
(0.998443 -0.00147823 1)
(0.999003 -0.00139974 -1)
(0.999003 -0.00139974 1)
(0.999439 -0.00133864 -1)
(0.999439 -0.00133864 1)
(0.999751 -0.00129496 -1)
(0.999751 -0.00129496 1)
(0.999938 -0.00126874 -1)
(0.999938 -0.00126874 1)
)

// edges

798
(
(0 4)
(5 1)
(1 0)
(4 6)
(7 5)
(6 8)
(9 7)
(8 10)
(11 9)
(10 12)
(13 11)
(12 14)
(15 13)
(14 16)
(17 15)
(16 18)
(19 17)
(18 20)
(21 19)
(20 22)
(23 21)
(22 24)
(25 23)
(24 26)
(27 25)
(26 28)
(29 27)
(28 30)
(31 29)
(30 32)
(33 31)
(32 34)
(35 33)
(34 36)
(37 35)
(36 38)
(39 37)
(38 40)
(41 39)
(40 42)
(43 41)
(42 44)
(45 43)
(44 46)
(47 45)
(46 48)
(49 47)
(48 50)
(51 49)
(50 52)
(53 51)
(52 54)
(55 53)
(54 56)
(57 55)
(56 58)
(59 57)
(58 60)
(61 59)
(60 62)
(63 61)
(62 64)
(65 63)
(64 66)
(67 65)
(66 68)
(69 67)
(68 70)
(71 69)
(70 72)
(73 71)
(72 74)
(75 73)
(74 76)
(77 75)
(76 78)
(79 77)
(78 80)
(81 79)
(80 82)
(83 81)
(82 84)
(85 83)
(84 86)
(87 85)
(86 88)
(89 87)
(88 90)
(91 89)
(90 92)
(93 91)
(92 94)
(95 93)
(94 96)
(97 95)
(96 98)
(99 97)
(98 100)
(101 99)
(100 102)
(103 101)
(102 104)
(105 103)
(104 106)
(107 105)
(106 108)
(109 107)
(108 110)
(111 109)
(110 112)
(113 111)
(112 114)
(115 113)
(114 116)
(117 115)
(116 118)
(119 117)
(118 120)
(121 119)
(120 122)
(123 121)
(122 124)
(125 123)
(124 126)
(127 125)
(126 128)
(129 127)
(128 130)
(131 129)
(130 132)
(133 131)
(132 134)
(135 133)
(134 136)
(137 135)
(136 138)
(139 137)
(138 140)
(141 139)
(140 142)
(143 141)
(142 144)
(145 143)
(144 146)
(147 145)
(146 148)
(149 147)
(148 150)
(151 149)
(150 152)
(153 151)
(152 154)
(155 153)
(154 156)
(157 155)
(156 158)
(159 157)
(158 160)
(161 159)
(160 162)
(163 161)
(162 164)
(165 163)
(164 166)
(167 165)
(166 168)
(169 167)
(168 170)
(171 169)
(170 172)
(173 171)
(172 174)
(175 173)
(174 176)
(177 175)
(176 178)
(179 177)
(178 180)
(181 179)
(180 182)
(183 181)
(182 184)
(185 183)
(184 186)
(187 185)
(186 188)
(189 187)
(188 190)
(191 189)
(190 192)
(193 191)
(192 194)
(195 193)
(194 196)
(197 195)
(196 198)
(199 197)
(198 200)
(201 199)
(200 202)
(203 201)
(202 204)
(205 203)
(204 206)
(207 205)
(206 208)
(209 207)
(208 210)
(211 209)
(210 212)
(213 211)
(212 214)
(215 213)
(214 216)
(217 215)
(216 218)
(219 217)
(218 220)
(221 219)
(220 222)
(223 221)
(222 224)
(225 223)
(224 226)
(227 225)
(226 228)
(229 227)
(228 230)
(231 229)
(230 232)
(233 231)
(232 234)
(235 233)
(234 236)
(237 235)
(236 238)
(239 237)
(238 240)
(241 239)
(240 242)
(243 241)
(242 244)
(245 243)
(244 246)
(247 245)
(246 248)
(249 247)
(248 250)
(251 249)
(250 252)
(253 251)
(252 254)
(255 253)
(254 256)
(257 255)
(256 258)
(259 257)
(258 260)
(261 259)
(260 262)
(263 261)
(262 264)
(265 263)
(264 266)
(267 265)
(266 268)
(269 267)
(268 270)
(271 269)
(270 272)
(273 271)
(272 274)
(275 273)
(274 276)
(277 275)
(276 278)
(279 277)
(278 280)
(281 279)
(280 282)
(283 281)
(282 284)
(285 283)
(284 286)
(287 285)
(286 288)
(289 287)
(288 290)
(291 289)
(290 292)
(293 291)
(292 294)
(295 293)
(294 296)
(297 295)
(296 298)
(299 297)
(298 300)
(301 299)
(300 302)
(303 301)
(302 304)
(305 303)
(304 306)
(307 305)
(306 308)
(309 307)
(308 310)
(311 309)
(310 312)
(313 311)
(312 314)
(315 313)
(314 316)
(317 315)
(316 318)
(319 317)
(318 320)
(321 319)
(320 322)
(323 321)
(322 324)
(325 323)
(324 326)
(327 325)
(326 328)
(329 327)
(328 330)
(331 329)
(330 332)
(333 331)
(332 334)
(335 333)
(334 336)
(337 335)
(336 338)
(339 337)
(338 340)
(341 339)
(340 342)
(343 341)
(342 344)
(345 343)
(344 346)
(347 345)
(346 348)
(349 347)
(348 350)
(351 349)
(350 352)
(353 351)
(352 354)
(355 353)
(354 356)
(357 355)
(356 358)
(359 357)
(358 360)
(361 359)
(360 362)
(363 361)
(362 364)
(365 363)
(364 366)
(367 365)
(366 368)
(369 367)
(368 370)
(371 369)
(370 372)
(373 371)
(372 374)
(375 373)
(374 376)
(377 375)
(376 378)
(379 377)
(378 380)
(381 379)
(380 382)
(383 381)
(382 384)
(385 383)
(384 386)
(387 385)
(386 388)
(389 387)
(388 390)
(391 389)
(390 392)
(393 391)
(392 394)
(395 393)
(394 396)
(397 395)
(396 398)
(399 397)
(398 400)
(401 399)
(400 402)
(403 401)
(402 404)
(405 403)
(404 406)
(407 405)
(406 408)
(409 407)
(408 410)
(411 409)
(410 412)
(413 411)
(412 414)
(415 413)
(414 416)
(417 415)
(416 418)
(419 417)
(418 420)
(421 419)
(420 422)
(423 421)
(422 424)
(425 423)
(424 426)
(427 425)
(426 428)
(429 427)
(428 430)
(431 429)
(430 432)
(433 431)
(432 434)
(435 433)
(434 436)
(437 435)
(436 438)
(439 437)
(438 440)
(441 439)
(440 442)
(443 441)
(442 444)
(445 443)
(444 446)
(447 445)
(446 448)
(449 447)
(448 450)
(451 449)
(450 452)
(453 451)
(452 454)
(455 453)
(454 456)
(457 455)
(456 458)
(459 457)
(458 460)
(461 459)
(460 462)
(463 461)
(462 464)
(465 463)
(464 466)
(467 465)
(466 468)
(469 467)
(468 470)
(471 469)
(470 472)
(473 471)
(472 474)
(475 473)
(474 476)
(477 475)
(476 478)
(479 477)
(478 480)
(481 479)
(480 482)
(483 481)
(482 484)
(485 483)
(484 486)
(487 485)
(486 488)
(489 487)
(488 490)
(491 489)
(490 492)
(493 491)
(492 494)
(495 493)
(494 496)
(497 495)
(496 498)
(499 497)
(498 500)
(501 499)
(500 502)
(503 501)
(502 504)
(505 503)
(504 506)
(507 505)
(506 508)
(509 507)
(508 510)
(511 509)
(510 512)
(513 511)
(512 514)
(515 513)
(514 516)
(517 515)
(516 518)
(519 517)
(518 520)
(521 519)
(520 522)
(523 521)
(522 524)
(525 523)
(524 526)
(527 525)
(526 528)
(529 527)
(528 530)
(531 529)
(530 532)
(533 531)
(532 534)
(535 533)
(534 536)
(537 535)
(536 538)
(539 537)
(538 540)
(541 539)
(540 542)
(543 541)
(542 544)
(545 543)
(544 546)
(547 545)
(546 548)
(549 547)
(548 550)
(551 549)
(550 552)
(553 551)
(552 554)
(555 553)
(554 556)
(557 555)
(556 558)
(559 557)
(558 560)
(561 559)
(560 562)
(563 561)
(562 564)
(565 563)
(564 566)
(567 565)
(566 568)
(569 567)
(568 570)
(571 569)
(570 572)
(573 571)
(572 574)
(575 573)
(574 576)
(577 575)
(576 578)
(579 577)
(578 580)
(581 579)
(580 582)
(583 581)
(582 584)
(585 583)
(584 586)
(587 585)
(586 588)
(589 587)
(588 590)
(591 589)
(590 592)
(593 591)
(592 594)
(595 593)
(594 596)
(597 595)
(596 598)
(599 597)
(598 600)
(601 599)
(600 602)
(603 601)
(602 604)
(605 603)
(604 606)
(607 605)
(606 608)
(609 607)
(608 610)
(611 609)
(610 612)
(613 611)
(612 614)
(615 613)
(614 616)
(617 615)
(616 618)
(619 617)
(618 620)
(621 619)
(620 622)
(623 621)
(622 624)
(625 623)
(624 626)
(627 625)
(626 628)
(629 627)
(628 630)
(631 629)
(630 632)
(633 631)
(632 634)
(635 633)
(634 636)
(637 635)
(636 638)
(639 637)
(638 640)
(641 639)
(640 642)
(643 641)
(642 644)
(645 643)
(644 646)
(647 645)
(646 648)
(649 647)
(648 650)
(651 649)
(650 652)
(653 651)
(652 654)
(655 653)
(654 656)
(657 655)
(656 658)
(659 657)
(658 660)
(661 659)
(660 662)
(663 661)
(662 664)
(665 663)
(664 666)
(667 665)
(666 668)
(669 667)
(668 670)
(671 669)
(670 672)
(673 671)
(672 674)
(675 673)
(674 676)
(677 675)
(676 678)
(679 677)
(678 680)
(681 679)
(680 682)
(683 681)
(682 684)
(685 683)
(684 686)
(687 685)
(686 688)
(689 687)
(688 690)
(691 689)
(690 692)
(693 691)
(692 694)
(695 693)
(694 696)
(697 695)
(696 698)
(699 697)
(698 700)
(701 699)
(700 702)
(703 701)
(702 704)
(705 703)
(704 706)
(707 705)
(706 708)
(709 707)
(708 710)
(711 709)
(710 712)
(713 711)
(712 714)
(715 713)
(714 716)
(717 715)
(716 718)
(719 717)
(718 720)
(721 719)
(720 722)
(723 721)
(722 724)
(725 723)
(724 726)
(727 725)
(726 728)
(729 727)
(728 730)
(731 729)
(730 732)
(733 731)
(732 734)
(735 733)
(734 736)
(737 735)
(736 738)
(739 737)
(738 740)
(741 739)
(740 742)
(743 741)
(742 744)
(745 743)
(744 746)
(747 745)
(746 748)
(749 747)
(748 750)
(751 749)
(750 752)
(753 751)
(752 754)
(755 753)
(754 756)
(757 755)
(756 758)
(759 757)
(758 760)
(761 759)
(760 762)
(763 761)
(762 764)
(765 763)
(764 766)
(767 765)
(766 768)
(769 767)
(768 770)
(771 769)
(770 772)
(773 771)
(772 774)
(775 773)
(774 776)
(777 775)
(776 778)
(779 777)
(778 780)
(781 779)
(780 782)
(783 781)
(782 784)
(785 783)
(784 786)
(787 785)
(786 788)
(789 787)
(788 790)
(791 789)
(790 792)
(793 791)
(792 794)
(795 793)
(794 796)
(797 795)
(796 2)
(2 3)
(3 797)
)

// concaveStart mixedStart nonFeatureStart
0 0 4
// internalStart flatStart openStart multipleStart
0 0 0 798
// normals

796
(
(0.138988 0.990294 0)
(0.138988 0.990294 -0)
(0.138908 0.990305 0)
(0.138908 0.990305 -0)
(0.13886 0.990312 0)
(0.13886 0.990312 -0)
(0.138827 0.990317 0)
(0.138827 0.990317 -0)
(0.138733 0.99033 0)
(0.138733 0.99033 -0)
(0.138629 0.990344 0)
(0.138629 0.990344 -0)
(0.138507 0.990361 0)
(0.138507 0.990361 -0)
(0.138359 0.990382 0)
(0.138359 0.990382 -0)
(0.138192 0.990405 0)
(0.138192 0.990405 -0)
(0.138003 0.990432 0)
(0.138003 0.990432 -0)
(0.137793 0.990461 0)
(0.137793 0.990461 -0)
(0.13758 0.990491 0)
(0.13758 0.990491 -0)
(0.137318 0.990527 0)
(0.137318 0.990527 -0)
(0.137056 0.990563 0)
(0.137056 0.990563 -0)
(0.136775 0.990602 0)
(0.136775 0.990602 -0)
(0.136477 0.990643 0)
(0.136477 0.990643 -0)
(0.136143 0.990689 0)
(0.136143 0.990689 -0)
(0.135813 0.990734 0)
(0.135813 0.990734 -0)
(0.135447 0.990785 0)
(0.135447 0.990785 -0)
(0.135068 0.990836 0)
(0.135068 0.990836 -0)
(0.134685 0.990888 0)
(0.134685 0.990888 -0)
(0.134268 0.990945 0)
(0.134268 0.990945 -0)
(0.13384 0.991003 0)
(0.13384 0.991003 -0)
(0.133397 0.991063 0)
(0.133397 0.991063 -0)
(0.132941 0.991124 0)
(0.132941 0.991124 -0)
(0.132461 0.991188 0)
(0.132461 0.991188 -0)
(0.131976 0.991253 0)
(0.131976 0.991253 -0)
(0.131467 0.99132 0)
(0.131467 0.99132 -0)
(0.13095 0.991389 0)
(0.13095 0.991389 -0)
(0.130417 0.991459 0)
(0.130417 0.991459 -0)
(0.129867 0.991531 0)
(0.129867 0.991531 -0)
(0.12931 0.991604 0)
(0.12931 0.991604 -0)
(0.128737 0.991679 0)
(0.128737 0.991679 -0)
(0.128153 0.991754 0)
(0.128153 0.991754 -0)
(0.127553 0.991832 0)
(0.127553 0.991832 -0)
(0.126943 0.99191 0)
(0.126943 0.99191 -0)
(0.126326 0.991989 0)
(0.126326 0.991989 -0)
(0.125692 0.992069 0)
(0.125692 0.992069 -0)
(0.125054 0.99215 0)
(0.125054 0.99215 -0)
(0.124395 0.992233 0)
(0.124395 0.992233 -0)
(0.123734 0.992315 0)
(0.123734 0.992315 -0)
(0.123062 0.992399 0)
(0.123062 0.992399 -0)
(0.122377 0.992484 0)
(0.122377 0.992484 -0)
(0.121689 0.992568 0)
(0.121689 0.992568 -0)
(0.120987 0.992654 0)
(0.120987 0.992654 -0)
(0.120276 0.99274 0)
(0.120276 0.99274 -0)
(0.119557 0.992827 0)
(0.119557 0.992827 -0)